      40
SCF Done            -760.16229375
Al            0.000000000         0.000000000         0.000000000
Al            0.000000000         4.447055880         0.000000000
Al            0.000000000         0.000000000         4.447055880
Al            4.447055880         0.000000000         0.000000000
Al            2.516540120         0.000000000         2.223527940
Al            1.930515761         0.000000000         6.670583820
Al            2.223527940         2.516540120         0.000000000
Al            0.000000000         2.223527940         2.516540120
Al            6.670583820         1.930515761         0.000000000
Al            0.000000000         6.670583820         1.930515761
Al            1.930515761         4.447055880         2.223527940
Al            2.516540120         4.447055880        -2.223527940
Al            2.223527940         1.930515761         4.447055880
Al            4.447055880         2.223527940         1.930515761
Al           -2.223527940         2.516540120         4.447055880
Al            4.447055880        -2.223527940         2.516540120
O             0.852343206         3.197050333         1.176503550
O            -0.852343206         1.250005547         1.176503550
O             5.299399086         1.250005547        -1.176503550
O             3.594712674         3.197050333        -1.176503550
O             1.176503550         0.852343206         3.197050333
O             3.197050333         1.176503550         0.852343206
O            -1.176503550         3.594712674         3.197050333
O             1.250005547         1.176503550        -0.852343206
O             1.176503550        -0.852343206         1.250005547
O             1.250005547        -1.176503550         5.299399086
O            -1.176503550         5.299399086         1.250005547
O             3.197050333        -1.176503550         3.594712674
O             3.594712674         1.250005547         3.270552330
O             5.299399086         3.197050333         3.270552330
O            -0.852343206         3.197050333         5.623559431
O             0.852343206         1.250005547         5.623559431
O             3.270552330         3.594712674         1.250005547
O             1.250005547         3.270552330         3.594712674
O             5.623559431         0.852343206         1.250005547
O             3.197050333         3.270552330         5.299399086
O             3.270552330         5.299399086         3.197050333
O             3.197050333         5.623559431        -0.852343206
O             5.623559431        -0.852343206         3.197050333
O             1.250005547         5.623559431         0.852343206
